Circuit: *** SPICE deck for cell 2_Input_And_Gate{sch} from library IC_Project

Error on line 9 : mnmos@6 out net@95 gnd gnd mynmos l=0.6u w=3u
	 Unable to find definition of model "w"
	
	* Error:  No unlabeled parameter permitted for MOSFET's
Error on line 10 : mnmos@7 net@95 a net@113 gnd mynmos l=0.6u w=1.5u
	 Unable to find definition of model "w"
	
	* Error:  No unlabeled parameter permitted for MOSFET's
Error on line 11 : mnmos@8 net@113 b gnd gnd mynmos l=0.6u w=1.5u
	 Unable to find definition of model "w"
	
	* Error:  No unlabeled parameter permitted for MOSFET's
Error on line 12 : mpmos@5 vdd net@95 out vdd mypmos l=0.6u w=6u
	 Unable to find definition of model "w"
	
	* Error:  No unlabeled parameter permitted for MOSFET's
Error on line 13 : mpmos@6 net@95 a vdd vdd mypmos l=0.6u w=3u
	 Unable to find definition of model "w"
	
	* Error:  No unlabeled parameter permitted for MOSFET's
Error on line 14 : mpmos@7 net@95 b vdd vdd mypmos l=0.6u w=3u
	 Unable to find definition of model "w"
	
	* Error:  No unlabeled parameter permitted for MOSFET's
Direct Newton iteration for .op point succeeded.


Measurement "tf" FAIL'ed

Measurement "tr" FAIL'ed


Date: Mon Jan 13 20:16:48 2025
Total elapsed time: 4.725 seconds.

tnom = 27
temp = 27
method = modified trap
totiter = 3152
traniter = 3127
tranpoints = 1145
accept = 1127
rejected = 18
matrix size = 9
fillins = 0
solver = Normal
Matrix Compiler1:      22 opcodes  0.1/[0.0]/0.0
Matrix Compiler2: off  [0.1]/0.1/0.1

