Circuit: *** SPICE deck for cell 2input_OR{sch} from library IC_Project

Ignoring BSIM parameter XL
Ignoring BSIM parameter XW
Ignoring BSIM parameter XL
Ignoring BSIM parameter XW
Warning: Pd = 0 is less than W.
Warning: Ps = 0 is less than W.
Warning: Pd = 0 is less than W.
Warning: Ps = 0 is less than W.
Warning: Pd = 0 is less than W.
Warning: Ps = 0 is less than W.
Warning: Pd = 0 is less than W.
Warning: Ps = 0 is less than W.
Direct Newton iteration for .op point succeeded.


Measurement "tf" FAIL'ed

Measurement "tr" FAIL'ed


Date: Sat Jan 11 16:52:44 2025
Total elapsed time: 0.235 seconds.

tnom = 27
temp = 27
method = modified trap
totiter = 2777
traniter = 2766
tranpoints = 1174
accept = 1138
rejected = 36
matrix size = 9
fillins = 0
solver = Normal
Matrix Compiler1: 422 bytes object code size  0.1/0.1/[0.1]
Matrix Compiler2: off  [0.1]/0.1/0.1

