Circuit: *** SPICE deck for cell 3input_And{sch} from library IC_Project

Ignoring BSIM parameter XL
Ignoring BSIM parameter XW
Ignoring BSIM parameter XL
Ignoring BSIM parameter XW
Warning: Pd = 0 is less than W.
Warning: Ps = 0 is less than W.
Warning: Pd = 0 is less than W.
Warning: Ps = 0 is less than W.
Warning: Pd = 0 is less than W.
Warning: Ps = 0 is less than W.
Warning: Pd = 0 is less than W.
Warning: Ps = 0 is less than W.
Warning: Pd = 0 is less than W.
Warning: Ps = 0 is less than W.
Warning: Pd = 0 is less than W.
Warning: Ps = 0 is less than W.
Direct Newton iteration for .op point succeeded.

tf=-1.52226e-007 FROM 1.78596e-007 TO 2.637e-008
tr=1.34072e-007 FROM 3.14813e-008 TO 1.65553e-007


Date: Sat Jan 11 07:33:41 2025
Total elapsed time: 0.156 seconds.

tnom = 27
temp = 27
method = modified trap
totiter = 2920
traniter = 2888
tranpoints = 1132
accept = 1121
rejected = 11
matrix size = 14
fillins = 0
solver = Normal
Matrix Compiler1: 762 bytes object code size  0.2/0.5/[0.1]
Matrix Compiler2: off  [0.2]/0.2/0.3

