Circuit: *** SPICE deck for cell 4input_OR{sch} from library IC_Project

Ignoring BSIM parameter XL
Ignoring BSIM parameter XW
Ignoring BSIM parameter XL
Ignoring BSIM parameter XW
Warning: Pd = 0 is less than W.
Warning: Ps = 0 is less than W.
Warning: Pd = 0 is less than W.
Warning: Ps = 0 is less than W.
Warning: Pd = 0 is less than W.
Warning: Ps = 0 is less than W.
Warning: Pd = 0 is less than W.
Warning: Ps = 0 is less than W.
Warning: Pd = 0 is less than W.
Warning: Ps = 0 is less than W.
Warning: Pd = 0 is less than W.
Warning: Ps = 0 is less than W.
Direct Newton iteration for .op point succeeded.


Measurement "tf" FAIL'ed

Measurement "tr" FAIL'ed


Date: Sat Jan 11 10:19:40 2025
Total elapsed time: 0.175 seconds.

tnom = 27
temp = 27
method = modified trap
totiter = 2645
traniter = 2626
tranpoints = 1120
accept = 1114
rejected = 6
matrix size = 16
fillins = 0
solver = Normal
Matrix Compiler1: 934 bytes object code size  0.3/0.1/[0.1]
Matrix Compiler2: 1.60 KB object code size  0.2/0.2/[0.2]

