Circuit: *** SPICE deck for cell 8bit_CLA{sch} from library IC_Project

Ignoring BSIM parameter XL
Ignoring BSIM parameter XW
Ignoring BSIM parameter XL
Ignoring BSIM parameter XW
Va7: Removing PWL point (1e-008,0)
Va3: Removing PWL point (1e-008,0)
WARNING: Node CLA_WITH@0_A3 is floating.
WARNING: Node CLA_WITH@0_B3 is floating.
WARNING: Node CLA_WITH@0_A2 is floating.
WARNING: Node CLA_WITH@0_B2 is floating.
WARNING: Node CLA_WITH@0_A1 is floating.
WARNING: Node CLA_WITH@0_B1 is floating.
WARNING: Node CLA_WITH@0_A0 is floating.
WARNING: Node CLA_WITH@0_B0 is floating.
WARNING: Node CLA_WITH@0:NET@138 is floating.
WARNING: Node CARRYLA@0_A3 is floating.
WARNING: Node CARRYLA@0_B3 is floating.
WARNING: Node CARRYLA@0_A2 is floating.
WARNING: Node CARRYLA@0_B2 is floating.
WARNING: Node CARRYLA@0_A1 is floating.
WARNING: Node CARRYLA@0_B1 is floating.
WARNING: Node CARRYLA@0_A0 is floating.
WARNING: Node CARRYLA@0_B0 is floating.

WARNING: Less than two connections to node A0.  This node is used by VA0.
WARNING: Less than two connections to node A1.  This node is used by VA1.
WARNING: Less than two connections to node A2.  This node is used by VA2.
WARNING: Less than two connections to node A3.  This node is used by VA3.
WARNING: Less than two connections to node A4.  This node is used by VA4.
WARNING: Less than two connections to node A5.  This node is used by VA5.
WARNING: Less than two connections to node A6.  This node is used by VA6.
WARNING: Less than two connections to node A7.  This node is used by VA7.
WARNING: Less than two connections to node B0.  This node is used by VB0.
WARNING: Less than two connections to node B1.  This node is used by VB1.
WARNING: Less than two connections to node B2.  This node is used by VB2.
WARNING: Less than two connections to node B3.  This node is used by VB3.
WARNING: Less than two connections to node B4.  This node is used by VB4.
WARNING: Less than two connections to node B5.  This node is used by VB5.
WARNING: Less than two connections to node B6.  This node is used by VB6.
WARNING: Less than two connections to node B7.  This node is used by VB7.
Warning: Pd = 0 is less than W.
Warning: Ps = 0 is less than W.
Warning: Pd = 0 is less than W.
Warning: Ps = 0 is less than W.
Warning: Pd = 0 is less than W.
Warning: Ps = 0 is less than W.
Warning: Pd = 0 is less than W.
Warning: Ps = 0 is less than W.
Warning: Pd = 0 is less than W.
Warning: Ps = 0 is less than W.
Warning: Pd = 0 is less than W.
Warning: Ps = 0 is less than W.
Warning: Pd = 0 is less than W.
Warning: Ps = 0 is less than W.
Warning: Pd = 0 is less than W.
Warning: Ps = 0 is less than W.
Early termination of direct N-R iteration.
Direct Newton iteration failed to find .op point.  (Use ".option noopiter" to skip.)
Starting Gmin stepping
Gmin = 10
Gmin = 1.07374
Gmin = 0.115292
Gmin = 0.0123794
Gmin = 0.00132923
Gmin = 0.000142725
Gmin = 1.5325e-005
Gmin = 1.6455e-006
Gmin = 1.76685e-007
Gmin = 1.89714e-008
Gmin = 2.03704e-009
Gmin = 2.18725e-010
Gmin = 2.34854e-011
Gmin = 2.52173e-012
Gmin = 2.70769e-013
Gmin = 0
Gmin stepping succeeded in finding the operating point.


Date: Tue Jan 14 07:38:21 2025
Total elapsed time: 1.135 seconds.

tnom = 27
temp = 27
method = modified trap
totiter = 2628
traniter = 2105
tranpoints = 1053
accept = 1053
rejected = 0
matrix size = 300
fillins = 580
solver = Normal
Thread vector: 334.2/202.6[8] 62.2/30.4[8] 17.4/12.5[5] 2.6/175.5[1]  2592/500
Matrix Compiler1: 83.87 KB object code size  26.1/10.0/[7.5]
Matrix Compiler2: 46.98 KB object code size  10.3/12.3/[4.2]

