Circuit: *** SPICE deck for cell AND_Layout{lay} from library IC_Project

Ignoring BSIM parameter XL
Ignoring BSIM parameter XW
Ignoring BSIM parameter XL
Ignoring BSIM parameter XW
WARNING: Node NET@3 is floating.
WARNING: Node NET@6 is floating.
WARNING: Node NET@12 is floating.

Warning: Pd = 0 is less than W.
Warning: Ps = 0 is less than W.
Warning: Pd = 0 is less than W.
Warning: Ps = 0 is less than W.
Direct Newton iteration for .op point succeeded.


Measurement "tf" FAIL'ed

Measurement "tr" FAIL'ed


Date: Sat Jan 11 17:27:51 2025
Total elapsed time: 0.141 seconds.

tnom = 27
temp = 27
method = modified trap
totiter = 2519
traniter = 2487
tranpoints = 1094
accept = 1094
rejected = 0
matrix size = 15
fillins = 6
solver = Normal
Matrix Compiler1: 1.85 KB object code size  0.4/0.3/[0.1]
Matrix Compiler2: off  [0.2]/0.3/3.4

