Circuit: *** SPICE deck for cell inverter{sch} from library Leen-fulladder

Ignoring BSIM parameter XL
Ignoring BSIM parameter XW
Ignoring BSIM parameter XL
Ignoring BSIM parameter XW
WARNING: Node OUT is floating.

WARNING: Less than two connections to node OUT.  This node is used by CLOAD.
Warning: Pd = 0 is less than W.
Warning: Ps = 0 is less than W.
Warning: Pd = 0 is less than W.
Warning: Ps = 0 is less than W.
Direct Newton iteration for .op point succeeded.

tf=8.61725e-008 FROM 1.38275e-008 TO 1e-007
tr=8.41798e-008 FROM 1.58202e-008 TO 1e-007


Date: Mon Jan 13 18:39:23 2025
Total elapsed time: 0.041 seconds.

tnom = 27
temp = 27
method = modified trap
totiter = 2164
traniter = 2158
tranpoints = 1054
accept = 1054
rejected = 0
matrix size = 6
fillins = 0
solver = Normal
Matrix Compiler1: 218 bytes object code size  0.0/0.0/[0.0]
Matrix Compiler2: 350 bytes object code size  0.0/0.1/[0.0]

