Circuit: *** SPICE deck for cell NAND{sch} from library Leen-fulladder

Ignoring BSIM parameter XL
Ignoring BSIM parameter XW
Ignoring BSIM parameter XL
Ignoring BSIM parameter XW
Warning: Pd = 0 is less than W.
Warning: Ps = 0 is less than W.
Warning: Pd = 0 is less than W.
Warning: Ps = 0 is less than W.
Direct Newton iteration for .op point succeeded.


Measurement "tf" FAIL'ed

Measurement "tr" FAIL'ed


Date: Mon Jan 13 20:06:54 2025
Total elapsed time: 0.113 seconds.

tnom = 27
temp = 27
method = modified trap
totiter = 1642
traniter = 1632
tranpoints = 696
accept = 637
rejected = 59
matrix size = 8
fillins = 0
solver = Normal
Matrix Compiler1: 300 bytes object code size  0.1/0.1/[0.0]
Matrix Compiler2: 636 bytes object code size  0.1/0.1/[0.1]

