Circuit: *** SPICE deck for cell xorgate{sch} from library Leen-fulladder

Ignoring BSIM parameter XL
Ignoring BSIM parameter XW
Ignoring BSIM parameter XL
Ignoring BSIM parameter XW
WARNING: Node OUT is floating.

WARNING: Less than two connections to node OUT.  This node is used by CLOAD.
Warning: Pd = 0 is less than W.
Warning: Ps = 0 is less than W.
Warning: Pd = 0 is less than W.
Warning: Ps = 0 is less than W.
Warning: Pd = 0 is less than W.
Warning: Ps = 0 is less than W.
Warning: Pd = 0 is less than W.
Warning: Ps = 0 is less than W.
Direct Newton iteration for .op point succeeded.


Measurement "tf" FAIL'ed

Measurement "tr" FAIL'ed


Date: Mon Jan 13 20:24:20 2025
Total elapsed time: 0.178 seconds.

tnom = 27
temp = 27
method = modified trap
totiter = 4177
traniter = 4144
tranpoints = 1472
accept = 1322
rejected = 150
matrix size = 14
fillins = 2
solver = Normal
Matrix Compiler1: 992 bytes object code size  0.3/0.2/[0.1]
Matrix Compiler2:     109 opcodes  0.4/[0.2]/0.3

